LTspice 24.1.10 for Windows
Circuit: C:\GDRIVEstr\Il mio Drive\COMPUTER MIO\FILE PROG ELETTRONICA\LTspice_circuiti\sawtooth\Sawtooth pier_2.net
Start Time: Fri Nov 28 14:59:49 2025
solver = Normal
Maximum thread count: 12
tnom = 27
temp = 27
method = modified trap
Direct Newton iteration for .op point succeeded.
Total elapsed time: 0.236 seconds.

Files loaded:
C:\GDRIVEstr\Il mio Drive\COMPUTER MIO\FILE PROG ELETTRONICA\LTspice_circuiti\sawtooth\Sawtooth pier_2.net
C:\Users\PierpPC_2024\AppData\Local\LTspice\lib\cmp\standard.dio
C:\Users\PierpPC_2024\AppData\Local\LTspice\lib\cmp\standard.bjt

