LTspice 24.1.10 for Windows
Circuit: C:\GDRIVEstr\Il mio Drive\COMPUTER MIO\FILE PROG ELETTRONICA\LTspice_circuiti\sawtooth\Sawtooth test.net
Start Time: Tue Nov 18 22:30:23 2025
solver = Normal
Maximum thread count: 12
tnom = 27
temp = 27
method = modified trap
Direct Newton iteration for .op point succeeded.
Total elapsed time: 0.228 seconds.

Files loaded:
C:\GDRIVEstr\Il mio Drive\COMPUTER MIO\FILE PROG ELETTRONICA\LTspice_circuiti\sawtooth\Sawtooth test.net
C:\Users\PierpPC_2024\AppData\Local\LTspice\lib\cmp\standard.dio
C:\Users\PierpPC_2024\AppData\Local\LTspice\lib\cmp\standard.bjt

