LTspice 24.1.10 for Windows
Circuit: C:\GDRIVEstr\Il mio Drive\COMPUTER MIO\FILE PROG ELETTRONICA\LTspice_circuiti\sawtooth\Sawtooth pier.net
Start Time: Thu Nov 20 12:34:26 2025
solver = Normal
Maximum thread count: 12
tnom = 27
temp = 27
method = modified trap
Direct Newton iteration for .op point succeeded.
Total elapsed time: 0.306 seconds.

Files loaded:
C:\GDRIVEstr\Il mio Drive\COMPUTER MIO\FILE PROG ELETTRONICA\LTspice_circuiti\sawtooth\Sawtooth pier.net
C:\Users\PierpPC_2024\AppData\Local\LTspice\lib\cmp\standard.dio
C:\Users\PierpPC_2024\AppData\Local\LTspice\lib\cmp\standard.bjt
C:\Users\PierpPC_2024\AppData\Local\LTspice\lib\cmp\standard.mos

